Version 4
SHEET 1 880 680
WIRE 192 -64 48 -64
WIRE 368 -64 192 -64
WIRE 192 -48 192 -64
WIRE 48 0 48 -64
WIRE 192 48 192 32
WIRE 192 64 192 48
WIRE 368 80 368 -64
WIRE 48 112 48 80
WIRE 96 112 48 112
WIRE 128 112 96 112
WIRE 48 160 48 112
WIRE 192 176 192 160
WIRE 48 272 48 240
WIRE 192 272 192 256
WIRE 192 272 48 272
WIRE 368 272 368 160
WIRE 368 272 192 272
WIRE 192 288 192 272
FLAG 192 288 0
FLAG 96 112 nb
FLAG 192 48 nc
FLAG 192 176 ne
SYMBOL npn3 128 64 R0
SYMATTR InstName Q1
SYMATTR Value Q2n2222a
SYMBOL res 32 144 R0
SYMATTR InstName R1
SYMATTR Value 12k
SYMBOL res 32 -16 R0
SYMATTR InstName R2
SYMATTR Value 47k
SYMBOL res 176 -64 R0
SYMATTR InstName R3
SYMATTR Value 3.3k
SYMBOL res 176 160 R0
SYMATTR InstName R4
SYMATTR Value 1k
SYMBOL voltage 368 64 R0
WINDOW 123 0 0 Left 0
WINDOW 39 0 0 Left 0
SYMATTR InstName V1
SYMATTR Value 12
TEXT -24 360 Left 1 !.inc E:\\Circuit design software\\ltspice\\Spice model/2N2222A.LIB.TXT
TEXT -16 296 Left 2 !.tran 1
TEXT -24 -136 Left 2 ;BIPOLAR TRANSISTOR CHARACTERIZATIONS
