Version 4
SHEET 1 880 680
WIRE 208 16 -16 16
WIRE 384 16 208 16
WIRE 208 32 208 16
WIRE -16 80 -16 16
WIRE 208 128 208 112
WIRE 208 144 208 128
WIRE 384 160 384 16
WIRE -16 192 -16 160
WIRE 0 192 -16 192
WIRE 112 192 80 192
WIRE 144 192 112 192
WIRE -16 224 -16 192
WIRE 208 256 208 240
WIRE -16 352 -16 304
WIRE 208 352 208 336
WIRE 208 352 -16 352
WIRE 384 352 384 240
WIRE 384 352 208 352
WIRE 208 368 208 352
FLAG 208 368 0
FLAG 208 128 nc
FLAG 208 256 ne
FLAG 112 192 nb
SYMBOL npn3 144 144 R0
SYMATTR InstName Q1
SYMATTR Value Q2n2222a
SYMBOL res -32 208 R0
WINDOW 0 42 61 Left 2
WINDOW 3 -51 49 Left 2
SYMATTR InstName R1
SYMATTR Value 12k
SYMBOL res -32 64 R0
WINDOW 3 -42 56 Left 2
SYMATTR InstName R2
SYMATTR Value 47k
SYMBOL res 192 16 R0
SYMATTR InstName R3
SYMATTR Value 3.3k
SYMBOL res 192 240 R0
SYMATTR InstName R4
SYMATTR Value 1k
SYMBOL voltage 384 144 R0
WINDOW 123 0 0 Left 0
WINDOW 39 0 0 Left 0
SYMATTR InstName V1
SYMATTR Value 12
SYMBOL voltage -16 192 R270
WINDOW 0 32 56 VTop 2
WINDOW 3 -34 112 VBottom 2
WINDOW 123 0 0 Left 0
WINDOW 39 0 0 Left 0
SYMATTR InstName V2
SYMATTR Value SINE(0 0.1 50)
TEXT -8 440 Left 1 !.inc E:\\Circuit design software\\ltspice\\Spice model/2N2222A.LIB.TXT
TEXT 0 376 Left 2 !.tran 1
TEXT -8 -56 Left 2 ;BIPOLAR TRANSISTOR CHARACTERIZATIONS
