Version 4
SHEET 1 880 756
WIRE 160 80 16 80
WIRE 160 96 160 80
WIRE 16 144 16 80
WIRE 160 192 160 176
WIRE 240 192 160 192
WIRE 416 192 304 192
WIRE 448 192 416 192
WIRE 160 208 160 192
WIRE 448 224 448 192
WIRE -80 256 -96 256
WIRE 16 256 16 224
WIRE 16 256 -16 256
WIRE 64 256 16 256
WIRE 96 256 64 256
WIRE -96 304 -96 256
WIRE 16 304 16 256
WIRE 160 352 160 304
WIRE 704 352 704 304
WIRE 160 368 160 352
WIRE 448 368 448 304
WIRE -96 416 -96 384
WIRE 16 480 16 384
WIRE 160 480 160 448
WIRE 320 480 160 480
WIRE -96 544 -96 496
WIRE 320 608 320 544
WIRE 160 624 160 560
FLAG 64 256 nb
FLAG 160 192 nc
FLAG 160 352 ne
FLAG 160 624 0
FLAG 448 368 0
FLAG 16 480 0
FLAG -96 544 0
FLAG 320 608 0
FLAG 704 352 0
FLAG 704 224 Vcc
FLAG 160 80 Vcc
FLAG 416 192 out
SYMBOL npn3 96 208 R0
SYMATTR InstName Q1
SYMATTR Value Q2n2222a
SYMBOL res 0 288 R0
SYMATTR InstName R1
SYMATTR Value 10k
SYMBOL res 0 128 R0
SYMATTR InstName R2
SYMATTR Value 47k
SYMBOL res 144 80 R0
SYMATTR InstName R3
SYMATTR Value 4.7k
SYMBOL res 144 352 R0
SYMATTR InstName R4
SYMATTR Value 470
SYMBOL voltage -96 400 R0
WINDOW 123 0 0 Left 0
WINDOW 39 0 0 Left 0
WINDOW 3 23 119 Left 2
SYMATTR InstName V1
SYMATTR Value SINE(0 10m 1k)
SYMBOL res 144 464 R0
SYMATTR InstName R5
SYMATTR Value 470
SYMBOL cap 304 176 R90
WINDOW 0 0 32 VBottom 2
WINDOW 3 32 32 VTop 2
SYMATTR InstName C1
SYMATTR Value 10µ
SYMBOL res 432 208 R0
SYMATTR InstName R6
SYMATTR Value 47k
SYMBOL cap 304 480 R0
SYMATTR InstName C2
SYMATTR Value 100µ
SYMBOL cap -16 240 R90
WINDOW 0 0 32 VBottom 2
WINDOW 3 32 32 VTop 2
SYMATTR InstName C3
SYMATTR Value 10µ
SYMBOL res -112 288 R0
SYMATTR InstName R7
SYMATTR Value 600
SYMBOL voltage 704 208 R0
WINDOW 123 0 0 Left 0
WINDOW 39 0 0 Left 0
SYMATTR InstName V2
SYMATTR Value 10
TEXT -56 744 Left 1 !.inc E:\\Circuit design software\\ltspice\\Spice model/2N2222A.LIB.TXT
TEXT -48 712 Left 2 !.tran 8m
TEXT -56 8 Left 2 ;Common-Emitter with source degeneration
