Version 4
SHEET 1 880 680
WIRE 144 96 96 96
WIRE 288 96 224 96
WIRE 288 128 288 96
WIRE 16 224 16 96
WIRE 288 240 288 192
FLAG 288 240 0
FLAG 16 224 0
FLAG 288 96 Vc
SYMBOL res 112 80 R90
WINDOW 0 0 56 VBottom 2
WINDOW 3 32 56 VTop 2
SYMATTR InstName R1
SYMATTR Value 63.245
SYMBOL ind 128 112 R270
WINDOW 0 32 56 VTop 2
WINDOW 3 5 56 VBottom 2
SYMATTR InstName L1
SYMATTR Value 1m
SYMBOL cap 272 128 R0
SYMATTR InstName C1
SYMATTR Value 1µ
TEXT 352 88 Left 2 !.ic I(L1)=0
TEXT 352 128 Left 2 !.ic V(Vc)=10
TEXT -8 264 Left 2 !.tran 500u
