Version 4
SHEET 1 880 680
WIRE 128 112 80 112
WIRE 272 112 208 112
WIRE 272 144 272 112
WIRE 0 240 0 112
WIRE 272 256 272 208
FLAG 272 256 0
FLAG 0 240 0
FLAG 272 112 Vc
SYMBOL res 96 96 R90
WINDOW 0 0 56 VBottom 2
WINDOW 3 32 56 VTop 2
SYMATTR InstName R1
SYMATTR Value 200
SYMBOL ind 112 128 R270
WINDOW 0 32 56 VTop 2
WINDOW 3 5 56 VBottom 2
SYMATTR InstName L1
SYMATTR Value 1m
SYMBOL cap 256 144 R0
SYMATTR InstName C1
SYMATTR Value 1µ
TEXT 336 104 Left 2 !.ic I(L1)=0
TEXT 336 144 Left 2 !.ic V(Vc)=10
TEXT -24 280 Left 2 !.tran 500u
