Version 4
SHEET 1 880 680
WIRE 144 64 96 64
WIRE 288 64 224 64
WIRE 288 96 288 64
WIRE 16 192 16 64
WIRE 288 208 288 160
FLAG 288 208 0
FLAG 16 192 0
FLAG 288 64 Vc
SYMBOL res 112 48 R90
WINDOW 0 0 56 VBottom 2
WINDOW 3 32 56 VTop 2
SYMATTR InstName R1
SYMATTR Value 10
SYMBOL ind 128 80 R270
WINDOW 0 32 56 VTop 2
WINDOW 3 5 56 VBottom 2
SYMATTR InstName L1
SYMATTR Value 1m
SYMBOL cap 272 96 R0
SYMATTR InstName C1
SYMATTR Value 1µ
TEXT 352 56 Left 2 !.ic I(L1)=0
TEXT 352 96 Left 2 !.ic V(Vc)=10
TEXT -4 232 Left 2 !.tran 1.5m
