Version 4
SHEET 1 880 680
WIRE 64 144 -16 144
WIRE 192 144 144 144
WIRE 336 144 272 144
WIRE 336 160 336 144
WIRE -16 176 -16 144
WIRE 336 272 336 224
WIRE -16 288 -16 256
FLAG 336 272 0
FLAG -16 288 0
FLAG 336 144 Vc
SYMBOL voltage -16 160 R0
WINDOW 123 0 0 Left 0
WINDOW 39 0 0 Left 0
SYMATTR InstName V1
SYMATTR Value 10
SYMBOL res 160 128 R90
WINDOW 0 0 56 VBottom 2
WINDOW 3 32 56 VTop 2
SYMATTR InstName R1
SYMATTR Value 10
SYMBOL ind 176 160 R270
WINDOW 0 32 56 VTop 2
WINDOW 3 5 56 VBottom 2
SYMATTR InstName L1
SYMATTR Value 1m
SYMBOL cap 320 160 R0
SYMATTR InstName C1
SYMATTR Value 1µ
TEXT 192 88 Left 2 !.ic I(L1)=0
TEXT 392 184 Left 2 !.ic V(Vc)=0
TEXT -50 312 Left 2 !.tran 1m
