Version 4
SHEET 1 880 680
WIRE 96 80 16 80
WIRE 224 80 176 80
WIRE 224 112 224 80
WIRE 16 128 16 80
WIRE 224 224 224 192
WIRE 16 240 16 192
FLAG 16 240 0
FLAG 224 224 0
FLAG 16 80 vc
SYMBOL cap 0 128 R0
SYMATTR InstName C1
SYMATTR Value 0.5m
SYMBOL res 192 64 R90
WINDOW 0 0 56 VBottom 2
WINDOW 3 32 56 VTop 2
SYMATTR InstName R1
SYMATTR Value 4k
SYMBOL voltage 224 96 R0
WINDOW 123 0 0 Left 0
WINDOW 39 0 0 Left 0
SYMATTR InstName V1
SYMATTR Value 30
TEXT -160 136 Left 2 !.ic V(vc)=15
TEXT -96 16 Left 2 ;Alexander and Sadiku 6th Edition Example 7.10
TEXT -162 264 Left 2 !.tran 12
