Version 4
SHEET 1 880 680
WIRE 144 96 32 96
WIRE 176 96 144 96
WIRE 384 96 256 96
WIRE 400 96 384 96
WIRE 400 128 400 96
WIRE 32 144 32 96
WIRE 144 160 144 96
WIRE 32 288 32 224
WIRE 144 288 144 224
WIRE 144 288 32 288
WIRE 400 288 400 208
WIRE 400 288 144 288
WIRE 144 320 144 288
FLAG 144 320 0
FLAG 384 96 vx
SYMBOL res 16 128 R0
SYMATTR InstName R1
SYMATTR Value 5
SYMBOL res 272 80 R90
WINDOW 0 0 56 VBottom 2
WINDOW 3 32 56 VTop 2
SYMATTR InstName R2
SYMATTR Value 8
SYMBOL res 384 112 R0
SYMATTR InstName R3
SYMATTR Value 12
SYMBOL cap 128 160 R0
SYMATTR InstName C1
SYMATTR Value 0.1
TEXT 456 104 Left 2 !.ic V(n001)=15
TEXT 14 344 Left 2 !.tran 3
