Version 4
SHEET 1 880 680
WIRE 112 80 48 80
WIRE 272 80 192 80
WIRE 48 112 48 80
WIRE 272 128 272 80
WIRE 48 240 48 192
WIRE 160 240 48 240
WIRE 272 240 272 192
WIRE 272 240 160 240
WIRE 160 272 160 240
FLAG 160 272 0
FLAG 272 80 vc
SYMBOL res 32 96 R0
SYMATTR InstName R1
SYMATTR Value 9
SYMBOL res 208 64 R90
WINDOW 0 0 56 VBottom 2
WINDOW 3 32 56 VTop 2
SYMATTR InstName R2
SYMATTR Value 1
SYMBOL cap 256 128 R0
SYMATTR InstName C1
SYMATTR Value 20m
TEXT 360 104 Left 2 !.ic V(vc)=15
TEXT 30 296 Left 2 !.tran 1
